* C:\data\SpiderOak\projects\ContextualElectronics\LoudMouth\spice\class_a_amplifier.asc
V1 N005 0 wavefile="c:/temp/test.wav" chan=0
V2 N002 0 5
C1 N006 N005 .82µF
R1 N001 N006 82K
R2 N006 0 39K
R4 N001 N003 6800
R3 N007 0 4700
R5 N002 N001 33
C2 0 N007 .82µF
C3 N003 N004 .82µF
C4 N001 0 .82µF
Q1 N003 N006 N007 0 2N2222
.model NPN NPN
.model PNP PNP
.lib C:\Program Files (x86)\LTC\LTspiceIV\lib\cmp\standard.bjt
.tran 1s
.backanno
.end
