Version 4
SHEET 1 880 680
WIRE 528 -160 208 -160
WIRE 208 0 208 -160
WIRE -112 64 -224 64
WIRE 528 64 528 -160
WIRE 160 80 -48 80
WIRE -112 96 -176 96
WIRE -176 192 -176 96
WIRE 208 192 208 96
WIRE 208 192 -176 192
WIRE -224 256 -224 64
WIRE 208 256 208 192
WIRE -448 288 -448 192
WIRE -224 384 -224 336
WIRE 208 384 208 336
WIRE 208 384 -224 384
WIRE 384 384 208 384
WIRE 528 384 528 144
WIRE 528 384 384 384
WIRE 384 432 384 384
WIRE -448 448 -448 368
FLAG 384 432 0
FLAG -448 448 0
FLAG -448 192 2.7V
FLAG -96 112 2.7V
FLAG -96 48 0
SYMBOL voltage -448 272 R0
SYMATTR InstName V1
SYMATTR Value 2.7V
SYMBOL voltage -224 240 R0
WINDOW 123 0 0 Left 2
WINDOW 39 0 0 Left 2
SYMATTR InstName V2
SYMATTR Value PULSE(0 .1 .5 .1 .1 .3 1 10)
SYMBOL voltage 528 48 R0
SYMATTR InstName V3
SYMATTR Value 3.7V
SYMBOL res 192 240 R0
SYMATTR InstName R1
SYMATTR Value .1
SYMBOL nmos 160 0 R0
SYMATTR InstName M1
SYMATTR Value BSC010NE2LSI
SYMBOL Opamps\\LT1218 -80 80 M180
SYMATTR InstName U2
TEXT -482 472 Left 2 !.tran 0 10 0
