Version 4
SHEET 1 924 680
WIRE 32 -64 -160 -64
WIRE 176 -64 32 -64
WIRE 368 -64 176 -64
WIRE 480 -64 448 -64
WIRE 32 -16 32 -64
WIRE 176 -16 176 -64
WIRE 480 0 480 -64
WIRE -160 64 -160 -64
WIRE 176 96 176 48
WIRE 32 160 32 64
WIRE 112 160 32 160
WIRE 320 160 176 160
WIRE 32 176 32 160
WIRE 320 176 320 160
WIRE -512 224 -544 224
WIRE -320 224 -432 224
WIRE -160 224 -160 144
WIRE -160 224 -256 224
WIRE -32 224 -160 224
WIRE -160 272 -160 224
WIRE -544 304 -544 224
WIRE 320 304 320 256
WIRE 32 400 32 272
WIRE 160 400 32 400
WIRE -160 432 -160 352
WIRE 32 464 32 400
WIRE 160 464 160 400
WIRE 32 592 32 544
WIRE 160 592 160 528
FLAG 480 0 0
FLAG 32 592 0
FLAG -160 432 0
FLAG -544 304 0
FLAG 320 304 0
FLAG 176 96 0
FLAG 160 592 0
SYMBOL voltage -416 224 R90
WINDOW 0 -32 56 VBottom 2
WINDOW 3 32 56 VTop 2
WINDOW 123 60 56 VTop 2
WINDOW 39 0 0 Left 2
SYMATTR InstName V1
SYMATTR Value SINE(0 100mv 1000)
SYMBOL voltage 352 -64 R270
WINDOW 0 32 56 VTop 2
WINDOW 3 -32 56 VBottom 2
WINDOW 123 0 0 Left 2
WINDOW 39 0 0 Left 2
SYMATTR InstName V2
SYMATTR Value 5
SYMBOL cap -256 208 R90
WINDOW 0 0 32 VBottom 2
WINDOW 3 32 32 VTop 2
SYMATTR InstName C1
SYMATTR Value 1µf
SYMBOL res -176 48 R0
SYMATTR InstName R1
SYMATTR Value 21.5K
SYMBOL res -176 256 R0
SYMATTR InstName R2
SYMATTR Value 10K
SYMBOL res 16 -32 R0
SYMATTR InstName R4
SYMATTR Value 3K
SYMBOL res 16 448 R0
SYMATTR InstName R3
SYMATTR Value 1K
SYMBOL cap 112 176 R270
WINDOW 0 32 32 VTop 2
WINDOW 3 0 32 VBottom 2
SYMATTR InstName C3
SYMATTR Value 1µf
SYMBOL npn -32 176 R0
SYMATTR InstName Q1
SYMATTR Value 2N2222
SYMBOL res 304 160 R0
SYMATTR InstName R6
SYMATTR Value 1MEG
SYMBOL cap 160 -16 R0
SYMATTR InstName C2
SYMATTR Value 1µf
SYMBOL cap 144 464 R0
SYMATTR InstName C4
SYMATTR Value 0µf
TEXT -568 616 Left 2 !.tran 100ms
